Version 4
SHEET 1 1800 1956
WIRE 944 752 912 752
WIRE 1056 752 1008 752
WIRE 1248 768 1216 768
WIRE 1360 768 1328 768
WIRE 1520 784 1488 784
WIRE 1632 784 1600 784
WIRE 800 864 736 864
WIRE 912 864 912 752
WIRE 912 864 880 864
WIRE 944 864 912 864
WIRE -80 880 -304 880
WIRE 384 880 0 880
WIRE 1056 880 1056 752
WIRE 1056 880 1008 880
WIRE 1072 880 1056 880
WIRE 1184 880 1152 880
WIRE 1216 880 1216 768
WIRE 1216 880 1184 880
WIRE 1248 880 1216 880
WIRE 736 896 736 864
WIRE 944 896 912 896
WIRE 1360 896 1360 768
WIRE 1360 896 1312 896
WIRE 1392 896 1360 896
WIRE 1488 896 1488 784
WIRE 1488 896 1456 896
WIRE 1520 896 1488 896
WIRE 1248 912 1216 912
WIRE 1632 912 1632 784
WIRE 1632 912 1584 912
WIRE 1728 912 1632 912
WIRE 912 928 912 896
WIRE 1520 928 1488 928
WIRE 1216 944 1216 912
WIRE 48 960 16 960
WIRE 304 960 128 960
WIRE 1488 960 1488 928
WIRE -576 992 -576 944
WIRE -432 992 -432 944
WIRE 944 992 912 992
WIRE 1056 992 1008 992
WIRE 736 1008 736 976
WIRE 144 1024 144 992
WIRE -304 1040 -304 880
WIRE -256 1040 -304 1040
WIRE -144 1040 -176 1040
WIRE -112 1040 -144 1040
WIRE 16 1040 16 960
WIRE 16 1040 -32 1040
WIRE 112 1040 16 1040
WIRE 304 1056 304 960
WIRE 304 1056 176 1056
WIRE 384 1056 384 880
WIRE 384 1056 304 1056
WIRE 512 1056 384 1056
WIRE 112 1072 32 1072
WIRE -304 1088 -304 1040
WIRE -144 1088 -144 1040
WIRE 800 1104 736 1104
WIRE 912 1104 912 992
WIRE 912 1104 880 1104
WIRE 944 1104 912 1104
WIRE -576 1120 -576 1072
WIRE -432 1120 -432 1072
WIRE 1056 1120 1056 992
WIRE 1056 1120 1008 1120
WIRE 1072 1120 1056 1120
WIRE 1184 1120 1184 880
WIRE 1184 1120 1152 1120
WIRE 736 1136 736 1104
WIRE 944 1136 912 1136
WIRE 912 1168 912 1136
WIRE -304 1184 -304 1152
WIRE -144 1184 -144 1152
WIRE -144 1184 -304 1184
WIRE -80 1184 -144 1184
WIRE 144 1184 144 1088
WIRE 144 1184 -80 1184
WIRE -80 1216 -80 1184
WIRE 736 1248 736 1216
FLAG -432 1120 0
FLAG -576 1120 0
FLAG -576 944 +2.5V
FLAG -432 944 +5V
FLAG 976 848 +5V
FLAG 976 1088 +5V
FLAG 976 1152 0
FLAG 976 912 0
FLAG 1280 864 +5V
FLAG 1280 928 0
FLAG 1552 880 +5V
FLAG 1552 944 0
FLAG 1728 912 Vout
FLAG 912 928 +2.5V
FLAG 912 1168 +2.5V
FLAG 1216 944 +2.5V
FLAG 1488 960 +2.5V
FLAG 512 1056 output1
FLAG 32 1072 +2.5V
FLAG 144 992 +5V
FLAG -80 1216 0
FLAG 736 1008 0
FLAG 736 1248 0
SYMBOL voltage -432 976 R0
WINDOW 123 0 0 Left 0
WINDOW 39 0 0 Left 0
SYMATTR InstName V1
SYMATTR Value 5
SYMBOL voltage -576 976 R0
WINDOW 123 0 0 Left 0
WINDOW 39 0 0 Left 0
SYMATTR InstName V2
SYMATTR Value 2.5
SYMBOL Opamps\\LT1413 976 816 R0
SYMATTR InstName U2
SYMBOL Opamps\\LT1413 976 1056 R0
SYMATTR InstName U3
SYMBOL res 896 848 R90
WINDOW 0 0 56 VBottom 2
WINDOW 3 32 56 VTop 2
SYMATTR InstName R4
SYMATTR Value 40000k
SYMBOL res 896 1088 R90
WINDOW 0 0 56 VBottom 2
WINDOW 3 32 56 VTop 2
SYMATTR InstName R5
SYMATTR Value 40000k
SYMBOL diode 944 768 R270
WINDOW 0 32 32 VTop 2
WINDOW 3 0 32 VBottom 2
SYMATTR InstName D1
SYMBOL diode 944 1008 R270
WINDOW 0 32 32 VTop 2
WINDOW 3 0 32 VBottom 2
SYMATTR InstName D2
SYMBOL res 1168 864 R90
WINDOW 0 0 56 VBottom 2
WINDOW 3 32 56 VTop 2
SYMATTR InstName R6
SYMATTR Value 40000k
SYMBOL res 1168 1104 R90
WINDOW 0 0 56 VBottom 2
WINDOW 3 32 56 VTop 2
SYMATTR InstName R7
SYMATTR Value 40000k
SYMBOL Opamps\\LT1413 1280 832 R0
SYMATTR InstName U4
SYMBOL res 1344 752 R90
WINDOW 0 0 56 VBottom 2
WINDOW 3 32 56 VTop 2
SYMATTR InstName R8
SYMATTR Value 40000k
SYMBOL diode 1392 912 R270
WINDOW 0 32 32 VTop 2
WINDOW 3 0 32 VBottom 2
SYMATTR InstName D3
SYMBOL Opamps\\LT1413 1552 848 R0
SYMATTR InstName U5
SYMBOL res 1616 768 R90
WINDOW 0 0 56 VBottom 2
WINDOW 3 32 56 VTop 2
SYMATTR InstName R9
SYMATTR Value 40000k
SYMBOL ind -272 1056 R270
WINDOW 0 32 56 VTop 2
WINDOW 3 5 56 VBottom 2
SYMATTR InstName L2
SYMATTR Value 10m
SYMBOL res -16 1024 R90
WINDOW 0 0 56 VBottom 2
WINDOW 3 32 56 VTop 2
SYMATTR InstName R10
SYMATTR Value 47k
SYMBOL res 144 944 R90
WINDOW 0 0 56 VBottom 2
WINDOW 3 32 56 VTop 2
SYMATTR InstName R11
SYMATTR Value 195k
SYMBOL res 16 864 R90
WINDOW 0 0 56 VBottom 2
WINDOW 3 32 56 VTop 2
SYMATTR InstName R12
SYMATTR Value 47k
SYMBOL cap -320 1088 R0
SYMATTR InstName C3
SYMATTR Value 0.22µ
SYMBOL cap -160 1088 R0
SYMATTR InstName C4
SYMATTR Value 0.22µ
SYMBOL Opamps\\LT1413 144 992 R0
SYMATTR InstName U6
SYMBOL voltage 736 880 R0
WINDOW 123 0 0 Left 0
WINDOW 39 0 0 Left 0
SYMATTR InstName V3
SYMATTR Value SINE(2.5.56 10000)
SYMBOL voltage 736 1120 R0
WINDOW 123 0 0 Left 0
WINDOW 39 0 0 Left 0
SYMATTR InstName V4
SYMATTR Value SINE(2.5 .25 5000)
TEXT -464 1272 Left 2 !.tran 0 0.101 0.1 uic
