Version 4
SHEET 1 880 1384
WIRE -48 864 -272 864
WIRE 416 864 32 864
WIRE 80 944 48 944
WIRE 336 944 160 944
WIRE -576 992 -576 944
WIRE -432 992 -432 944
WIRE 176 1008 176 976
WIRE -272 1024 -272 864
WIRE -224 1024 -272 1024
WIRE -112 1024 -144 1024
WIRE -80 1024 -112 1024
WIRE 48 1024 48 944
WIRE 48 1024 0 1024
WIRE 144 1024 48 1024
WIRE 336 1040 336 944
WIRE 336 1040 208 1040
WIRE 416 1040 416 864
WIRE 416 1040 336 1040
WIRE 544 1040 416 1040
WIRE 144 1056 64 1056
WIRE -272 1072 -272 1024
WIRE -112 1072 -112 1024
WIRE -576 1120 -576 1072
WIRE -432 1120 -432 1072
WIRE -272 1168 -272 1136
WIRE -112 1168 -112 1136
WIRE -112 1168 -272 1168
WIRE -48 1168 -112 1168
WIRE 176 1168 176 1072
WIRE 176 1168 -48 1168
WIRE -48 1200 -48 1168
FLAG -432 1120 0
FLAG -576 1120 0
FLAG -576 944 +2.5V
FLAG 544 1040 Vout
FLAG 64 1056 +2.5V
FLAG -432 944 +5V
FLAG 176 976 +5V
FLAG -48 1200 0
SYMBOL voltage -432 976 R0
WINDOW 123 0 0 Left 0
WINDOW 39 0 0 Left 0
SYMATTR InstName V1
SYMATTR Value 5
SYMBOL ind -240 1040 R270
WINDOW 0 32 56 VTop 2
WINDOW 3 5 56 VBottom 2
SYMATTR InstName L1
SYMATTR Value 10m
SYMBOL res 16 1008 R90
WINDOW 0 0 56 VBottom 2
WINDOW 3 32 56 VTop 2
SYMATTR InstName R1
SYMATTR Value 47k
SYMBOL res 176 928 R90
WINDOW 0 0 56 VBottom 2
WINDOW 3 32 56 VTop 2
SYMATTR InstName R2
SYMATTR Value 195k
SYMBOL res 48 848 R90
WINDOW 0 0 56 VBottom 2
WINDOW 3 32 56 VTop 2
SYMATTR InstName R3
SYMATTR Value 47k
SYMBOL cap -288 1072 R0
SYMATTR InstName C1
SYMATTR Value 0.22µ
SYMBOL cap -128 1072 R0
SYMATTR InstName C2
SYMATTR Value 0.22µ
SYMBOL Opamps\\LT1413 176 976 R0
SYMATTR InstName U1
SYMBOL voltage -576 976 R0
WINDOW 123 0 0 Left 0
WINDOW 39 0 0 Left 0
SYMATTR InstName V2
SYMATTR Value 2.5
TEXT -464 1272 Left 2 !.tran 0 0.101 0.1 1u uic
