Version 4
SHEET 1 2504 680
WIRE 544 -928 368 -928
WIRE 608 -928 544 -928
WIRE 544 -912 544 -928
WIRE 368 -800 368 -848
WIRE 416 -800 368 -800
WIRE 448 -800 416 -800
WIRE 544 -800 544 -848
WIRE 448 -656 448 -800
WIRE 400 -640 256 -640
WIRE 128 -592 128 -688
WIRE 688 -592 688 -688
WIRE 128 -496 128 -512
WIRE 256 -496 256 -640
WIRE 256 -496 128 -496
WIRE 400 -496 400 -592
WIRE 688 -496 688 -512
WIRE 688 -496 400 -496
WIRE 688 -480 688 -496
WIRE 688 -480 288 -480
WIRE 128 -432 128 -496
WIRE 528 -432 128 -432
WIRE 1264 -432 1264 -464
WIRE 1488 -432 1264 -432
WIRE 128 -352 128 -432
WIRE 288 -352 288 -480
WIRE 528 -352 528 -432
WIRE 688 -352 688 -480
WIRE -272 -304 -400 -304
WIRE -128 -304 -272 -304
WIRE 0 -304 -64 -304
WIRE 64 -304 0 -304
WIRE 400 -304 352 -304
WIRE 464 -304 400 -304
WIRE 896 -304 752 -304
WIRE 1008 -304 896 -304
WIRE 1264 -304 1264 -432
WIRE 1264 -304 1088 -304
WIRE -400 -288 -400 -304
WIRE -272 -288 -272 -304
WIRE 224 -256 128 -256
WIRE 288 -256 224 -256
WIRE 624 -256 528 -256
WIRE 688 -256 624 -256
WIRE 400 -208 400 -304
WIRE 1008 -208 400 -208
WIRE 1264 -208 1264 -304
WIRE 1264 -208 1088 -208
WIRE 0 -192 0 -304
WIRE 896 -192 896 -304
WIRE 896 -192 0 -192
WIRE 1264 -160 1264 -208
WIRE -272 -112 -272 -208
WIRE 224 -96 224 -256
WIRE 624 -96 624 -256
WIRE -224 -48 -384 -48
WIRE -96 -48 -224 -48
WIRE 160 -48 -32 -48
WIRE 1008 -48 688 -48
WIRE 1264 -48 1264 -80
WIRE 1264 -48 1088 -48
WIRE -384 -32 -384 -48
WIRE -224 -32 -224 -48
WIRE 1264 -16 1264 -48
WIRE 1488 -16 1264 -16
WIRE 416 0 224 0
WIRE 624 0 416 0
WIRE 1264 0 1264 -16
WIRE 1488 80 1488 48
WIRE 416 128 416 80
FLAG 416 128 0
FLAG -400 -208 0
FLAG -608 -416 0
FLAG 128 -688 Vcc
IOPIN 128 -688 In
FLAG -608 -496 Vcc
IOPIN -608 -496 Out
FLAG -272 -112 0
FLAG -224 48 0
FLAG 1264 80 0
FLAG 1488 80 0
FLAG 1488 -368 0
FLAG 1264 -544 Vcc
IOPIN 1264 -544 In
FLAG 688 -688 Vcc
IOPIN 688 -688 In
FLAG 448 -576 0
FLAG 544 -800 0
FLAG 608 -928 out_lpf
FLAG 416 -800 out
FLAG -384 48 0
SYMBOL npn 64 -352 R0
SYMATTR InstName Q1
SYMATTR Value 2N3904
SYMBOL npn 352 -352 M0
SYMATTR InstName Q2
SYMATTR Value 2N3904
SYMBOL npn 160 -96 R0
SYMATTR InstName Q6
SYMATTR Value 2N3904
SYMBOL res -256 -192 R180
WINDOW 0 36 76 Left 2
WINDOW 3 36 40 Left 2
SYMATTR InstName R1
SYMATTR Value 50
SYMBOL res 112 -608 R0
SYMATTR InstName R2
SYMATTR Value 270
SYMBOL res 672 -608 R0
SYMATTR InstName R3
SYMATTR Value 270
SYMBOL res 400 -16 R0
SYMATTR InstName R4
SYMATTR Value 270
SYMBOL voltage -608 -512 R0
WINDOW 123 0 0 Left 0
WINDOW 39 0 0 Left 0
SYMATTR InstName V3
SYMATTR Value 12
SYMBOL npn 464 -352 R0
SYMATTR InstName Q3
SYMATTR Value 2N3904
SYMBOL npn 752 -352 M0
SYMATTR InstName Q4
SYMATTR Value 2N3904
SYMBOL npn 688 -96 M0
SYMATTR InstName Q5
SYMATTR Value 2N3904
SYMBOL cap -64 -320 R90
WINDOW 0 0 32 VBottom 2
WINDOW 3 32 32 VTop 2
SYMATTR InstName C2
SYMATTR Value 0.1µ
SYMBOL cap -32 -64 R90
WINDOW 0 0 32 VBottom 2
WINDOW 3 32 32 VTop 2
SYMATTR InstName C3
SYMATTR Value 0.1µ
SYMBOL voltage -400 -304 R0
WINDOW 3 24 44 Left 2
WINDOW 123 24 72 Left 2
WINDOW 39 0 0 Left 0
SYMATTR Value SINE(1m 0.25 1.1g)
SYMATTR Value2 AC 1
SYMATTR InstName V1
SYMBOL res -208 64 R180
WINDOW 0 36 76 Left 2
WINDOW 3 36 40 Left 2
SYMATTR InstName R12
SYMATTR Value 50
SYMBOL res 1104 -224 R90
WINDOW 0 0 56 VBottom 2
WINDOW 3 32 56 VTop 2
SYMATTR InstName R13
SYMATTR Value 2.2k
SYMBOL res 1104 -320 R90
WINDOW 0 0 56 VBottom 2
WINDOW 3 32 56 VTop 2
SYMATTR InstName R14
SYMATTR Value 2.2k
SYMBOL res 1104 -64 R90
WINDOW 0 0 56 VBottom 2
WINDOW 3 32 56 VTop 2
SYMATTR InstName R15
SYMATTR Value 2.2k
SYMBOL res 1248 -176 R0
SYMATTR InstName R16
SYMATTR Value 3.3k
SYMBOL res 1280 96 R180
WINDOW 0 36 76 Left 2
WINDOW 3 36 40 Left 2
SYMATTR InstName R17
SYMATTR Value 2.2k
SYMBOL res 1280 -448 R180
WINDOW 0 36 76 Left 2
WINDOW 3 36 40 Left 2
SYMATTR InstName R18
SYMATTR Value 4.7k
SYMBOL cap 1472 -432 R0
SYMATTR InstName C4
SYMATTR Value 0.1µ
SYMBOL polcap 1472 -16 R0
SYMATTR InstName C1
SYMATTR Value 2.2µ
SYMBOL e 448 -672 R0
WINDOW 3 24 96 Invisible 2
SYMATTR Value 1
SYMATTR InstName E1
SYMBOL cap 528 -912 R0
SYMATTR InstName C5
SYMATTR Value 22.5p
SYMBOL res 352 -832 M180
WINDOW 0 36 76 Left 2
WINDOW 3 36 40 Left 2
SYMATTR InstName R6
SYMATTR Value 50
SYMBOL voltage -384 -48 R0
WINDOW 3 24 44 Left 2
WINDOW 123 24 72 Left 2
WINDOW 39 0 0 Left 0
SYMATTR Value SINE(1m .5 0.525g)
SYMATTR Value2 AC 1
SYMATTR InstName V2
TEXT 120 280 Left 2 !.include engr2420.sub
TEXT -128 304 Left 2 !.tran 0 1000n 0 100p
