Version 4
SHEET 1 2744 680
WIRE 656 -768 656 -912
WIRE 608 -752 496 -752
WIRE 368 -704 368 -800
WIRE 976 -704 976 -800
WIRE 368 -608 368 -624
WIRE 496 -608 496 -752
WIRE 496 -608 368 -608
WIRE 608 -608 608 -704
WIRE 976 -608 976 -624
WIRE 976 -608 608 -608
WIRE 976 -592 976 -608
WIRE 976 -592 544 -592
WIRE 368 -544 368 -608
WIRE 784 -544 368 -544
WIRE 1552 -544 1552 -576
WIRE 1776 -544 1552 -544
WIRE 368 -464 368 -544
WIRE 544 -464 544 -592
WIRE 784 -464 784 -544
WIRE 976 -464 976 -592
WIRE -32 -416 -400 -416
WIRE 112 -416 -32 -416
WIRE 240 -416 176 -416
WIRE 304 -416 240 -416
WIRE 672 -416 608 -416
WIRE 720 -416 672 -416
WIRE 1184 -416 1040 -416
WIRE 1296 -416 1184 -416
WIRE 1552 -416 1552 -544
WIRE 1552 -416 1376 -416
WIRE -32 -400 -32 -416
WIRE 464 -368 368 -368
WIRE 544 -368 464 -368
WIRE 880 -368 784 -368
WIRE 976 -368 880 -368
WIRE -832 -352 -832 -368
WIRE 672 -320 672 -416
WIRE 1296 -320 672 -320
WIRE 1552 -320 1552 -416
WIRE 1552 -320 1376 -320
WIRE 240 -304 240 -416
WIRE 1184 -304 1184 -416
WIRE 1184 -304 240 -304
WIRE 1552 -272 1552 -320
WIRE -32 -224 -32 -320
WIRE 464 -208 464 -368
WIRE 880 -208 880 -368
WIRE -32 -160 -400 -160
WIRE 112 -160 -32 -160
WIRE 400 -160 176 -160
WIRE 1296 -160 944 -160
WIRE 1552 -160 1552 -192
WIRE 1552 -160 1376 -160
WIRE -32 -144 -32 -160
WIRE 1552 -128 1552 -160
WIRE 1776 -128 1552 -128
WIRE 672 -112 464 -112
WIRE 880 -112 672 -112
WIRE 1552 -112 1552 -128
WIRE -832 -96 -832 -112
WIRE 1776 -32 1776 -64
WIRE 672 16 672 -32
WIRE -32 32 -32 -64
FLAG 672 16 0
FLAG -832 -272 0
FLAG -368 -528 0
FLAG 368 -800 Vcc
IOPIN 368 -800 In
FLAG -368 -608 Vcc
IOPIN -368 -608 Out
FLAG -32 -224 0
FLAG 1552 -32 0
FLAG 1776 -32 0
FLAG 1776 -480 0
FLAG 1552 -656 Vcc
IOPIN 1552 -656 In
FLAG 976 -800 Vcc
IOPIN 976 -800 In
FLAG 656 -688 0
FLAG 656 -912 out
FLAG -832 -16 0
FLAG -32 32 0
FLAG -832 -112 Input2
FLAG -400 -160 Input2
FLAG -832 -368 Input1
FLAG -400 -416 Input1
SYMBOL npn 304 -464 R0
SYMATTR InstName Q1
SYMATTR Value 2N3904
SYMBOL npn 608 -464 M0
SYMATTR InstName Q2
SYMATTR Value 2N3904
SYMBOL npn 400 -208 R0
SYMATTR InstName Q6
SYMATTR Value 2N3904
SYMBOL res -16 -304 R180
WINDOW 0 36 76 Left 2
WINDOW 3 36 40 Left 2
SYMATTR InstName R1
SYMATTR Value 50
SYMBOL res 352 -720 R0
SYMATTR InstName R2
SYMATTR Value 270
SYMBOL res 960 -720 R0
SYMATTR InstName R3
SYMATTR Value 270
SYMBOL res 656 -128 R0
SYMATTR InstName R4
SYMATTR Value 270
SYMBOL voltage -368 -624 R0
WINDOW 123 0 0 Left 0
WINDOW 39 0 0 Left 0
SYMATTR InstName V3
SYMATTR Value 12
SYMBOL npn 720 -464 R0
SYMATTR InstName Q3
SYMATTR Value 2N3904
SYMBOL npn 1040 -464 M0
SYMATTR InstName Q4
SYMATTR Value 2N3904
SYMBOL npn 944 -208 M0
SYMATTR InstName Q5
SYMATTR Value 2N3904
SYMBOL cap 176 -432 R90
WINDOW 0 0 32 VBottom 2
WINDOW 3 32 32 VTop 2
SYMATTR InstName C2
SYMATTR Value 0.1µ
SYMBOL voltage -832 -368 R0
WINDOW 3 24 44 Left 2
WINDOW 123 24 72 Left 2
WINDOW 39 0 0 Left 0
SYMATTR Value SINE(1m 0.25 1.1g)
SYMATTR InstName V1
SYMBOL res 1392 -336 R90
WINDOW 0 0 56 VBottom 2
WINDOW 3 32 56 VTop 2
SYMATTR InstName R13
SYMATTR Value 2.2k
SYMBOL res 1392 -432 R90
WINDOW 0 0 56 VBottom 2
WINDOW 3 32 56 VTop 2
SYMATTR InstName R14
SYMATTR Value 2.2k
SYMBOL res 1392 -176 R90
WINDOW 0 0 56 VBottom 2
WINDOW 3 32 56 VTop 2
SYMATTR InstName R15
SYMATTR Value 2.2k
SYMBOL res 1536 -288 R0
SYMATTR InstName R16
SYMATTR Value 3.3k
SYMBOL res 1568 -16 R180
WINDOW 0 36 76 Left 2
WINDOW 3 36 40 Left 2
SYMATTR InstName R17
SYMATTR Value 2.2k
SYMBOL res 1568 -560 R180
WINDOW 0 36 76 Left 2
WINDOW 3 36 40 Left 2
SYMATTR InstName R18
SYMATTR Value 4.7k
SYMBOL cap 1760 -544 R0
SYMATTR InstName C4
SYMATTR Value 0.1µ
SYMBOL e 656 -784 R0
WINDOW 3 24 96 Invisible 2
SYMATTR Value 1
SYMATTR InstName E1
SYMBOL voltage -832 -112 R0
WINDOW 3 24 44 Left 2
WINDOW 39 0 0 Left 0
SYMATTR Value SINE(1m .5 0.525g)
SYMATTR InstName V2
SYMBOL cap 1760 -128 R0
SYMATTR InstName C5
SYMATTR Value 0.1µ
SYMBOL res -16 -48 R180
WINDOW 0 36 76 Left 2
WINDOW 3 36 40 Left 2
SYMATTR InstName R5
SYMATTR Value 50
SYMBOL cap 176 -176 R90
WINDOW 0 0 32 VBottom 2
WINDOW 3 32 32 VTop 2
SYMATTR InstName C1
SYMATTR Value 0.1µ
TEXT 120 280 Left 2 !.include engr2420.sub
TEXT -128 304 Left 2 !.tran 0 1000n 0 100p
